     296

  C        14.0987597899        5.6039227588        9.8835556445
  C         9.3820030243       10.0442323154        0.8655631997
  C         1.5899401785       13.3119167533       17.3845495838
  C         6.2275540893        2.3316083645        8.3221333758
  C         1.5371498654       10.0911643660        8.2283625801
  C         6.2582540707        5.5424043100       17.4102889154
  C        14.1173733127        2.1552555778        0.7920651174
  C         9.3412533404       13.4822768442        9.9653923355
  C        14.2276235965        3.6947768477       14.5801192217
  C         9.2628325947       12.0040376415        5.5257998376
  C         1.4746437970       11.4721311891       12.6303674981
  C         6.4025944610        4.2247516333        3.5233170661
  C         1.4105170691       12.0744177240        3.5315063923
  C         6.4735363272        3.6626480833       12.6524643143
  C        14.2700018072        4.1742986997        5.5164323831
  C         9.2737980269       11.5332268058       14.6218021401
  C         1.5385342722        7.6292883646       11.5279202432
  C         6.2550980560        8.0728299722        2.4883043615
  C        14.1961364958       15.3955552236       15.6732545357
  C         9.3291788118        0.3149012698        6.6704469589
  C        14.0846071039        8.1213330552        6.5694067576
  C         9.3788728883        7.5747992279       15.7614259966
  C         1.6231741203        0.2792199496        2.4380046926
  C         6.2670032659       15.4654965673       11.6475906112
  C         2.2488250335        3.7313266037       11.6535548987
  C         5.6116742173       12.0041351588        2.5690940069
  C        13.3643722275       11.5404720622       15.6757695389
  C        10.0716174324        4.1731375654        6.5443483501
  C        13.3256531073       12.0313032996        6.4965297264
  C        10.1556624597        3.6762685993       15.6558395625
  C         2.2135633488        4.1916752152        2.5764119050
  C         5.5469050137       11.5305514166       11.6337536637
  C         1.6093045308        1.7333311150       11.0380910065
  C         6.3333238101       13.8252493922        1.6066983396
  C        13.9390478970        9.4974429725       16.2033778333
  C         9.4719936443        6.1897574518        7.1386244509
  C        14.0166091853       13.8354854090        7.5112953542
  C         9.5374459664        1.6404945200       16.1651654622
  C         1.5046526487        5.9975356794        1.5764032643
  C         6.2565448328        9.7130648162       10.6559775387
  C         0.4816012234        2.4663842498       11.4077965194
  C         7.4534512857       13.0618720756        2.0690630460
  C        15.0785475916       10.1840508343       15.7854743716
  C         8.3328945456        5.4866789371        6.7466375534
  C        15.1508256125       13.0955801978        7.0472220343
  C         8.4068796440        2.3679457244       15.7935729156
  C         0.3779668168        5.2333885148        2.0208738629
  C         7.3816984981       10.4625396876       11.1274483793
  C         5.6522528381        5.0853592659       11.2082459573
  C         2.2375502645       10.6594952773        2.0801597566
  C         9.5299363311       12.7648270200       16.4130049457
  C        13.4664498223        2.7998463163        7.0175539343
  C         9.6821003125       10.7407391916        7.2643154128
  C        13.7988292190        4.9680601537       16.3061776854
  C         5.4955494260        2.7964151782        2.1357858995
  C         1.9690220503       12.8433118888       10.9981343183
  C         4.8368238616        0.3203218314       13.2197542768
  C         2.9638259056       15.3681113516        4.0685900299
  C        10.7501826565        8.1514730897       14.1579113901
  C        12.7753086679        7.4824289634        4.9378722993
  C        10.6939478797       15.4158897141        5.0558230488
  C        12.7794861953        0.2585334910       14.0913479853
  C         4.8254675466        7.5622131452        4.0632253745
  C         3.0124216269        8.0959886118       13.0750878110
  C         4.1873299273        1.7104990514        7.8331371442
  C         3.5767552271       14.0640181972       16.8540173095
  C        11.4727898264        9.6060205891        1.3376927810
  C        12.0408248762        6.1648998789       10.3717857294
  C        11.4177697366       13.9596228078       10.4659272225
  C        12.0162265210        1.7776951329        1.2697241923
  C         4.2471038815        6.2017595290       16.8489291430
  C         3.5925218377        9.5668363373        7.6867068446
  C        12.7693899400        6.0771925280       11.5566577581
  C        10.7510303837        9.6601846056        2.5294051914
  C         2.8315713482       13.9134985353       15.6863792257
  C         4.9102184664        1.8313693066        6.6477413923
  C         2.8391097328        9.6745334411        6.5194187615
  C         5.0104390151        6.0644796696       15.6913780126
  C        12.7358249596        1.8502209200        2.4616825490
  C        10.6859043861       13.8672270455       11.6483011159
  C        14.5122030162        5.7149394145       15.3700268144
  C         8.9571376392        9.9937864710        6.3381117231
  C         1.2319981411       13.5392896977       11.9546551674
  C         6.2408939537        2.0879494896        3.0763507765
  C         1.4536993990        9.9527490645        2.9899105279
  C         6.4078746213        5.7901645309       12.1437580759
  C        14.1890734009        2.0601225813        6.0835289163
  C         8.7924736897       13.4892807086       15.4785960646
  C         2.1704865170        7.0907383925       13.5506449852
  C         5.6794749279        8.5551672494        4.5422400371
  C        13.5912398048       14.8821653151       13.6355428841
  C         9.8567512951        0.7696608481        4.5977342326
  C        13.6014843610        8.5025224294        4.4697755840
  C         9.9340368992        7.1204915479       13.6952286030
  C         2.0933682496        0.6900376263        4.5343757230
  C         5.6573002036       14.9547090649       13.6848255104
  C         6.5171592458       15.0595306585        0.9418616172
  C        14.1765212528       15.0522779627        8.2133362486
  C         1.3307437708        7.2232214047        0.8938264398
  C         6.4285675707        8.4836404724        9.9795562032
  C         8.7792796766       13.5204476664        1.8881697854
  C         0.8076374607       13.5581452999        7.2651178974
  C        14.7161340614        5.6811634451        1.8044663924
  C         8.7038007821        9.9962340933       10.9406464738
  C         7.8385341313       15.5113107374        0.7633360139
  C        15.4903811528       15.5071204505        8.4306628209
  C         0.0113724602        7.6647969900        0.6799581787
  C         7.7459903193        8.0231520010        9.7977174282
  C         8.9510067902       14.7539282056        1.2315520240
  C         0.9552625903       14.7714041862        7.9630214923
  C        14.5543790760        6.9061535636        1.1300933809
  C         8.8641746969        8.7683159847       10.2715904944
  H         1.7034140074        0.7003098255       10.6841206912
  H        13.8104000700        8.4600557319       16.5325057244
  H         9.5888692420        7.2213742025        7.4891752149
  H         9.6442831117        0.5928622524       16.4699691942
  H         5.6548611376       15.6574613233        0.6068262691
  H        13.3021514044       15.6329651340        8.5467295989
  H         2.1981643328        7.8206048395        0.5708992495
  H         5.5599830607        7.8984150289        9.6382753341
  H         8.0141617541        0.8188688969        0.2705170248
  H        15.6492299861        0.8057811751        8.9448277401
  H        -0.1579205161        8.6290045254        0.1749961591
  H         7.9137360374        7.0527052566        9.3049107055
  H         9.9715909643       15.1418192510        1.0789231699
  H         1.9697127309       15.1624720473        8.1459112523
  H        13.5357230022        7.2881705101        0.9506974806
  H         9.8818484633        8.3744951637       10.1154918409
  H         9.6383001313       12.9278950808        2.2402097699
  H         1.6769190817       12.9854883840        6.9061033602
  H        13.8536596936        5.0900008830        2.1500231827
  H         9.5677723325       10.5780190740       11.2978438931
  H        15.0850743958        2.1786812736       11.4185782214
  H         0.4569240991        9.8455089790       15.7042515754
  H         7.2827029944        5.8016543647        6.7104744829
  H         7.3548015060        2.0620297132       15.7370467331
  H         5.0929011517        5.4399943042       10.3345966252
  H         2.8080588768       10.3091345696        1.2118137661
  H         9.8326109927       13.0304132544       17.4315427124
  H        12.9256065550        2.4766900348        7.9147726690
  H        10.0499820053       10.4683688409        8.2594570318
  H        13.4326807702        5.2457716737       17.3004576624
  H         4.9038276269        2.4391322040        1.2846643151
  H         2.3717387310       13.1760535374       10.0350982546
  H         4.0054489189        0.8451950138       13.7050238312
  H         3.7706320047       14.8324391298        4.5825972550
  H        11.5597194137        8.6980536581       13.6595995558
  H        11.9919980819        6.9106580377        4.4267861658
  H        11.5044182986       14.8811004110        4.5465581789
  H        11.9515947985        0.7846782638       13.6011833056
  H         3.9856384534        7.0517246403        4.5492446692
  H         3.8692211933        8.5896801956       13.5489460596
  H         3.1336416565        1.4588249218        8.0025826154
  H         4.6132750724       14.3899663188       17.0007768630
  H        12.5424035371        9.4441286726        1.1575357355
  H        10.9794482047        6.3819568895       10.2020290677
  H        12.4832557714       14.1581726487       10.3021563221
  H        10.9431950783        1.6384710913        1.0912908516
  H         3.1958680949        6.4845992568       16.9795557492
  H         4.6563507835        9.3449309336        7.8325427908
  H        14.9844727814        5.2945526331        9.3131639998
  H         8.4765827456       10.3035115746        0.3009416135
  H         0.7480025847       12.9243795093       17.9733666333
  H         7.1037158604        2.6644718172        8.8942868357
  H         0.6617713870       10.3823164604        8.8237422256
  H         7.1074601662        5.1952452901       18.0136719748
  H        15.0287934713        2.3819454009        0.2230952152
  H         8.4461491749       13.2126629169        9.3891546146
  H        12.4590861523        6.2251342295       12.5979351750
  H        11.0786393228        9.5275025312        3.5673444163
  H         3.1004179713       14.0952475596       14.6390287731
  H         4.6022861859        1.6826843823        5.6057151387
  H         3.1284941898        9.5537868869        5.4686054182
  H         4.7436046055        6.2116994189       14.6378787903
  H        12.4034623300        1.7634396180        3.5033106203
  H        10.9998293962       13.9819781998       12.6926897679
  H        14.2767210454        2.8160352379       13.9241983231
  H         9.2223770985       12.8764703164        4.8601452188
  H         1.4028243345       10.5571079022       13.2325224107
  H         6.6819610397        5.1686782327        4.0090800335
  H         1.1872143313       13.0101348661        4.0611858420
  H         6.7060561169        2.7218304744       13.1681134155
  H        14.4986650257        5.0968067418        4.9665661245
  H         9.3208107935       10.6814308834       13.9305096112
  H        14.8540144581        6.7558748173       15.3969007704
  H         8.6054087810        8.9565876216        6.3760021395
  H         0.9032714299       14.5847355157       11.9828165771
  H         6.4117123437        1.0106756625        3.1776679722
  H         1.2254475672        8.8829961276        3.0460864029
  H         6.6210757707        6.8618037187       12.2191427640
  H        14.3838140682        0.9839535382        6.0298089325
  H         8.3646152658       14.4968132326       15.5347162015
  H         2.1663187745        6.5557087687       14.5077390455
  H         5.7121797544        9.0604460219        5.5145512990
  H        13.6010390474       14.3514098755       12.6762313013
  H         9.7945744175        1.2506953716        3.6148015705
  H        13.6818453289        8.9538406328        3.4744902012
  H         9.8889128159        6.6308053651       12.7157251609
  H         1.9988391745        1.1460858630        5.5265461332
  H         5.6638969308       14.4230788470       14.6435868940
  H         0.9769402142        7.6520855118       10.5845018954
  H         6.7893494133        8.0755092991        1.5289679990
  H        14.7346889807       15.3929939853       16.6303022861
  H         8.8229128615        0.3377471481        7.6446480419
  H        14.5638533932        8.1855210246        7.5552404548
  H         8.8629557243        7.5465689438       16.7303505298
  H         1.1377031136        0.3129134153        1.4536540933
  H         6.8105152167       15.4666622096       10.6934549611
  H         2.8876976992        4.5927166553       11.8883379454
  H         4.9280622485       11.2338495618        2.9533191722
  H        12.7571655631       12.4388038733       15.5025255981
  H        10.6905271995        3.2926565839        6.3278415248
  H        12.6545801885       11.2608668057        6.0909550274
  H        10.7838807496        4.5595150085       15.4794951261
  H         2.8916820730        3.4291761614        2.9846511247
  H         4.8674253082       12.3025726460       12.0221177014
  N         2.7236662171        2.5467810076       11.1958064854
  N         5.1718095216       13.1254777610        1.9441320784
  N        12.8594288036       10.3679305081       16.1314646019
  N        10.5676180093        5.3467450738        7.0083073300
  N        12.8672669278       13.1337770384        7.1403883983
  N        10.6398045290        2.4810622209       16.0753070292
  N         2.6614012374        5.3085010141        1.9490850121
  N         5.1012240151       10.4188042315       10.9971905430
  N         5.6994183085        3.7358931089       11.5412404794
  N         2.2050914568       12.0048416752        2.4330486813
  N         9.8302659484       11.5261874491       15.8581232082
  N        13.5227674913        4.1392082979        6.6478657070
  N         9.8705388071       12.0141397317        6.7386405223
  N        13.6239922877        3.6872363901       15.7941180682
  N         5.6030431759        4.1524007387        2.4291584103
  N         2.1172949726       11.5324830785       11.4377056877
  N         5.2317087587        0.6323881866       11.9242998011
  N         2.6586927980       15.1169692070        2.7349868332
  N        10.3904144126        8.4291001054       15.4726224473
  N        13.0889734575        7.2514643043        6.2727321539
  N        10.3530310515       15.1358828022        6.3753458033
  N        13.1710206902        0.5733715420       15.3879521512
  N         5.1978642539        7.2664308202        2.7568512158
  N         2.6042507587        8.4278051912       11.7877284563
  N         5.0323968889        2.0277178632        8.8898028446
  N         2.7795768584       13.6817953370       17.9278719891
  N        10.5945915824        9.8497125239        0.2885793292
  N        12.8934362328        5.8653223869        9.3154699442
  N        10.5544346305       13.7162298053        9.4023750361
  N        12.9026218293        1.9705732677        0.2167619515
  N         5.0487093135        5.8697394211       17.9360263002
  N         2.7564279768        9.8319160153        8.7651050951
  N        14.0729848331        5.7209421718       11.2347749273
  N         9.4260177826        9.9373667411        2.2167456238
  N         1.5745407240       13.4362849006       16.0341397828
  N         6.2026217886        2.2252226953        6.9709728151
  N         1.5380789075       10.0063085547        6.8760021935
  N         6.2830040248        5.6466182013       16.0593847672
  N        14.0680271837        2.0877362898        2.1448230680
  N         9.3709168412       13.5647502354       11.3187610599
  N        14.7793908750        4.8966892703       14.2788875762
  N         8.6966247403       10.8045005723        5.2394374259
  N         0.9227932166       12.6581559279       12.9844583593
  N         6.8157431336        3.0040641511        3.9480638809
  N         0.9287895992       10.8604858220        3.9016396090
  N         6.9280382822        4.8763451169       13.0514132639
  N        14.6988562302        2.9424266179        5.1399838526
  N         8.6363107580       12.6982619292       14.3460012925
  N         1.2374722085        6.8033824836       12.5611810187
  N         6.5842478262        8.8703043638        3.5354673396
  N        14.4871466012       14.5576938356       14.6470447749
  N         8.9934498326        1.1188664449        5.6293416615
  N        14.4285591717        8.9000923272        5.5127309445
  N         9.0679147848        6.7624488020       14.7206618659
  N         1.2457570310        1.0459188490        3.4922233638
  N         6.5618778886       14.6366256867       12.6791381331
  N         0.9005931071        3.7334599243       11.7961096748
  N         6.9584958165       11.9048837122        2.6749659614
  N        14.7014050608       11.4799991444       15.4517720713
  N         8.7262364444        4.2068994863        6.3710209287
  N        14.6760603447       11.9491800109        6.4050650202
  N         8.8117577983        3.6590644968       15.4721084517
  N         0.8653494511        4.0861823780        2.6508665431
  N         6.8942352793       11.6168097040       11.7442737953
 Zn         4.6430080810        2.1903837962       10.8258963544
 Zn         3.2385472044       13.5416842829        1.6502717547
 Zn        10.9464257196       10.0167247275       16.5507203061
 Zn        12.4925207056        5.7007950945        7.3790626716
 Zn        10.9367486993       13.5530239156        7.4555081157
 Zn        12.5561702194        2.1301888812       16.4794659910
 Zn         4.5952856788        5.7089419730        1.6528171944
 Zn         3.1758682299       10.0056556005       10.6915585708
 Zn        15.5612135837        5.3199474136       12.5074053878
 Zn         7.9289948599       10.3387738281        3.4748515885
 Zn         0.0978386258       13.0233085384       14.7468626789
 Zn         7.6839828340        2.6363167613        5.6963854310
 Zn         0.0390620419       10.4194340766        5.6216545820
 Zn         7.7878448264        5.2417860617       14.8023471943
 Zn        15.5559179585        2.5079472169        3.4104066748
 Zn         7.8763279995       13.1515056581       12.5782870674
